LTspice 24.1.10 for Windows
Circuit: C:\Users\jacqu\Documents\spice-full-adder\1a.cir
Start Time: Sat Dec 13 15:03:00 2025
solver = Normal
Maximum thread count: 20
tnom = 27
temp = 27
method = trap
Model "pmos0p18": Oxide thickness thinner than recommended for a level 1 MOSFET.
Instance "MP": Length shorter than recommended for a level 1 MOSFET.
Instance "MP": Width narrower than recommended for a level 1 MOSFET.
Model "nmos0p18": Oxide thickness thinner than recommended for a level 1 MOSFET.
Instance "MN": Length shorter than recommended for a level 1 MOSFET.
Instance "MN": Width narrower than recommended for a level 1 MOSFET.
.step 
Total elapsed time: 0.240 seconds.

Files loaded:
C:\Users\jacqu\Documents\spice-full-adder\1a.cir

