LTspice 24.1.10 for Windows
Circuit: C:\Users\jacqu\Documents\spice-full-adder\3a2_0p5_minarea.tran.cir
Start Time: Sat Dec 13 16:48:21 2025
solver = Normal
Maximum thread count: 20
tnom = 27
temp = 27
method = trap
Model "pmos0p5": Oxide thickness thinner than recommended for a level 1 MOSFET.
Instance "MP": Length shorter than recommended for a level 1 MOSFET.
Instance "MP": Width narrower than recommended for a level 1 MOSFET.
Model "nmos0p5": Oxide thickness thinner than recommended for a level 1 MOSFET.
Instance "MN": Length shorter than recommended for a level 1 MOSFET.
Instance "MN": Width narrower than recommended for a level 1 MOSFET.
Direct Newton iteration for .op point succeeded.
Total elapsed time: 0.206 seconds.

Files loaded:
C:\Users\jacqu\Documents\spice-full-adder\3a2_0p5_minarea.tran.cir
C:\Users\jacqu\Documents\spice-full-adder\MOSFET_models_0p5_0p18-3.inc

tphl=6.21225965887e-10 FROM 1.49999998207e-12 TO 6.22725965869e-10
Measurement "tplh" FAIL'ed
