LTspice 24.1.10 for Windows
Circuit: C:\Users\jacqu\Documents\spice-full-adder\3b2_0p5_matched.tran.cir
Start Time: Sat Dec 13 16:09:21 2025
solver = Normal
Maximum thread count: 20
tnom = 27
temp = 27
method = trap
Model "pmos0p5": Oxide thickness thinner than recommended for a level 1 MOSFET.
Instance "MP": Length shorter than recommended for a level 1 MOSFET.
Instance "MP": Width narrower than recommended for a level 1 MOSFET.
Model "nmos0p5": Oxide thickness thinner than recommended for a level 1 MOSFET.
Instance "MN": Length shorter than recommended for a level 1 MOSFET.
Instance "MN": Width narrower than recommended for a level 1 MOSFET.
Direct Newton iteration for .op point succeeded.
Total elapsed time: 0.200 seconds.

Files loaded:
C:\Users\jacqu\Documents\spice-full-adder\3b2_0p5_matched.tran.cir
C:\Users\jacqu\Documents\spice-full-adder\MOSFET_models_0p5_0p18-3.inc

tphl=2.27023095935e-09 FROM 2.50200004254e-09 TO 4.77223100189e-09
tplh=6.57886645685e-10 FROM 1.50000001092e-12 TO 6.59386645695e-10
